# RIV package for  MODFLOW-2005, generated by Flopy.
        50        53
        50         0 # stress period 1
         1        28         1             0.5    1000000000.0             0.0
         1        28         2             0.5    1000000000.0             0.0
         1        28         3             0.5    1000000000.0             0.0
         1        28         4             0.5    1000000000.0             0.0
         1        28         5             0.5    1000000000.0             0.0
         1        28         6             0.5    1000000000.0             0.0
         1        28         7             0.5    1000000000.0             0.0
         1        28         8             0.5    1000000000.0             0.0
         1        28         9             0.5    1000000000.0             0.0
         1        28        10             0.5    1000000000.0             0.0
         1        28        11             0.5    1000000000.0             0.0
         1        28        12             0.5    1000000000.0             0.0
         1        28        13             0.5    1000000000.0             0.0
         1        28        14             0.5    1000000000.0             0.0
         1        28        15             0.5    1000000000.0             0.0
         1        28        16             0.5    1000000000.0             0.0
         1        28        17             0.5    1000000000.0             0.0
         1        28        18             0.5    1000000000.0             0.0
         1        28        19             0.5    1000000000.0             0.0
         1        28        20             0.5    1000000000.0             0.0
         1        28        21             0.5    1000000000.0             0.0
         1        28        22             0.5    1000000000.0             0.0
         1        28        23             0.5    1000000000.0             0.0
         1        28        24             0.5    1000000000.0             0.0
         1        28        25             0.5    1000000000.0             0.0
         1        28        26             0.5    1000000000.0             0.0
         1        28        27             0.5    1000000000.0             0.0
         1        28        28             0.5    1000000000.0             0.0
         1        28        29             0.5    1000000000.0             0.0
         1        28        30             0.5    1000000000.0             0.0
         1        28        31             0.5    1000000000.0             0.0
         1        28        32             0.5    1000000000.0             0.0
         1        28        33             0.5    1000000000.0             0.0
         1        28        34             0.5    1000000000.0             0.0
         1        28        35             0.5    1000000000.0             0.0
         1        28        36             0.5    1000000000.0             0.0
         1        28        37             0.5    1000000000.0             0.0
         1        28        38             0.5    1000000000.0             0.0
         1        28        39             0.5    1000000000.0             0.0
         1        28        40             0.5    1000000000.0             0.0
         1        28        41             0.5    1000000000.0             0.0
         1        28        42             0.5    1000000000.0             0.0
         1        28        43             0.5    1000000000.0             0.0
         1        28        44             0.5    1000000000.0             0.0
         1        28        45             0.5    1000000000.0             0.0
         1        28        46             0.5    1000000000.0             0.0
         1        28        47             0.5    1000000000.0             0.0
         1        28        48             0.5    1000000000.0             0.0
         1        28        49             0.5    1000000000.0             0.0
         1        28        50             0.5    1000000000.0             0.0
