# RIV package for  MODFLOW-2005, generated by Flopy.
        49        53
        49         0 # stress period 1
         1        27         2            99.5    1000000000.0            98.0
         1        27         3            98.5    1000000000.0            97.0
         1        27         4            97.5    1000000000.0            96.0
         1        27         5            96.5    1000000000.0            95.0
         1        27         6            95.5    1000000000.0            94.0
         1        27         7            94.5    1000000000.0            93.0
         1        27         8            93.5    1000000000.0            92.0
         1        27         9            92.5    1000000000.0            91.0
         1        27        10            91.5    1000000000.0            90.0
         1        27        11            90.5    1000000000.0            89.0
         1        27        12            89.5    1000000000.0            88.0
         1        27        13            88.5    1000000000.0            87.0
         1        27        14            87.5    1000000000.0            86.0
         1        27        15            86.5    1000000000.0            85.0
         1        27        16            85.5    1000000000.0            84.0
         1        27        17            84.5    1000000000.0            83.0
         1        27        18            83.5    1000000000.0            82.0
         1        27        19            82.5    1000000000.0            81.0
         1        27        20            81.5    1000000000.0            80.0
         1        27        21            80.5    1000000000.0            79.0
         1        27        22            79.5    1000000000.0            78.0
         1        27        23            78.5    1000000000.0            77.0
         1        27        24            77.5    1000000000.0            76.0
         1        27        25            76.5    1000000000.0            75.0
         1        27        26            76.4    1000000000.0            74.9
         1        27        27            76.3    1000000000.0            74.8
         1        27        28            76.2    1000000000.0            74.7
         1        27        29            76.1    1000000000.0            74.6
         1        27        30            76.0    1000000000.0            74.5
         1        27        31            75.9    1000000000.0            74.4
         1        27        32            75.8    1000000000.0            74.3
         1        27        33            75.7    1000000000.0            74.2
         1        27        34            75.6    1000000000.0            74.1
         1        27        35            75.5    1000000000.0            74.0
         1        27        36            75.4    1000000000.0            73.9
         1        27        37            75.3    1000000000.0            73.8
         1        27        38            75.2    1000000000.0            73.7
         1        27        39            75.1    1000000000.0            73.6
         1        27        40            75.0    1000000000.0            73.5
         1        27        41            74.9    1000000000.0            73.4
         1        27        42            74.8    1000000000.0            73.3
         1        27        43            74.7    1000000000.0            73.2
         1        27        44            74.6    1000000000.0            73.1
         1        27        45            74.5    1000000000.0            73.0
         1        27        46            74.4    1000000000.0            72.9
         1        27        47            74.3    1000000000.0            72.8
         1        27        48            74.2    1000000000.0            72.7
         1        27        49            74.1    1000000000.0            72.6
         1        27        50            74.0    1000000000.0            72.5
        -1         0 # stress period 2
        -1         0 # stress period 3
        -1         0 # stress period 4
        -1         0 # stress period 5
        -1         0 # stress period 6
        -1         0 # stress period 7
        -1         0 # stress period 8
        -1         0 # stress period 9
        -1         0 # stress period 10
        -1         0 # stress period 11
        -1         0 # stress period 12
        -1         0 # stress period 13
        -1         0 # stress period 14
        -1         0 # stress period 15
        -1         0 # stress period 16
        -1         0 # stress period 17
        -1         0 # stress period 18
        -1         0 # stress period 19
        -1         0 # stress period 20
        -1         0 # stress period 21
        -1         0 # stress period 22
        -1         0 # stress period 23
        -1         0 # stress period 24
        -1         0 # stress period 25
        -1         0 # stress period 26
        -1         0 # stress period 27
        -1         0 # stress period 28
        -1         0 # stress period 29
        -1         0 # stress period 30
        -1         0 # stress period 31
        -1         0 # stress period 32
        -1         0 # stress period 33
        -1         0 # stress period 34
        -1         0 # stress period 35
        -1         0 # stress period 36
        -1         0 # stress period 37
        -1         0 # stress period 38
        -1         0 # stress period 39
        -1         0 # stress period 40
        -1         0 # stress period 41
        -1         0 # stress period 42
        -1         0 # stress period 43
        -1         0 # stress period 44
        -1         0 # stress period 45
        -1         0 # stress period 46
        -1         0 # stress period 47
        -1         0 # stress period 48
        -1         0 # stress period 49
        -1         0 # stress period 50
        -1         0 # stress period 51
