# RIV package for  MODFLOW-2005, generated by Flopy.
        49        53
        49         0 # stress period 1
         1        26         2           104.0     100000000.0            97.0
         1        26         3           103.0     100000000.0            96.0
         1        26         4           102.0     100000000.0            95.0
         1        26         5           101.0     100000000.0            94.0
         1        26         6           100.0     100000000.0            93.0
         1        26         7            99.0     100000000.0            92.0
         1        26         8            98.0     100000000.0            91.0
         1        26         9            97.0     100000000.0            90.0
         1        26        10            96.0     100000000.0            89.0
         1        26        11            95.0     100000000.0            88.0
         1        26        12            94.0     100000000.0            87.0
         1        26        13            93.0     100000000.0            86.0
         1        26        14            92.0     100000000.0            85.0
         1        26        15            91.0     100000000.0            84.0
         1        26        16            90.0     100000000.0            83.0
         1        26        17            89.0     100000000.0            82.0
         1        26        18            88.0     100000000.0            81.0
         1        26        19            87.0     100000000.0            80.0
         1        26        20            86.0     100000000.0            79.0
         1        26        21            85.0     100000000.0            78.0
         1        26        22            84.0     100000000.0            77.0
         1        26        23            83.0     100000000.0            76.0
         1        26        24            82.0     100000000.0            75.0
         1        26        25            81.0     100000000.0            74.0
         1        26        26            80.9     100000000.0            73.9
         1        26        27            80.8     100000000.0            73.8
         1        26        28            80.7     100000000.0            73.7
         1        26        29            80.6     100000000.0            73.6
         1        26        30            80.5     100000000.0            73.5
         1        26        31            80.4     100000000.0            73.4
         1        26        32            80.3     100000000.0            73.3
         1        26        33            80.2     100000000.0            73.2
         1        26        34            80.1     100000000.0            73.1
         1        26        35            80.0     100000000.0            73.0
         1        26        36            79.9     100000000.0            72.9
         1        26        37            79.8     100000000.0            72.8
         1        26        38            79.7     100000000.0            72.7
         1        26        39            79.6     100000000.0            72.6
         1        26        40            79.5     100000000.0            72.5
         1        26        41            79.4     100000000.0            72.4
         1        26        42            79.3     100000000.0            72.3
         1        26        43            79.2     100000000.0            72.2
         1        26        44            79.1     100000000.0            72.1
         1        26        45            79.0     100000000.0            72.0
         1        26        46            78.9     100000000.0            71.9
         1        26        47            78.8     100000000.0            71.8
         1        26        48            78.7     100000000.0            71.7
         1        26        49            78.6     100000000.0            71.6
         1        26        50            78.5     100000000.0            71.5
